DTL FO_Location/Create_Sample/vf/WECC_179.m
%% WECC 179 Bus Data - Sam Chevalier
%   - all non-source generators are 2nd order (classical)
%   - the source generator is 6th order with simple AVR => *Changed to 4th*
%   - the parameters are pulled from Slava's test cases

% Define Globals
global PQ Syn Exc pqi xnode
%xnode=1;
% Bus Data
Bus.con = [ ...
   2   500.00  0.97947 -0.45809  1  0;
   3   345.00  0.97744 -0.29684  1  0;
   4    20.00  1.04000 -0.34406  1  0;
   5   345.00  0.97518  0.28479  1  0;
   6    22.00  0.95000  0.41215  1  0;
   7   500.00  1.06814 -0.13835  1  0;
   8   345.00  1.00914 -0.08206  1  0;
   9    22.00  1.00000  0.03899  1  0;
  10   230.00  1.00726 -0.09157  1  0;
  11    20.00  1.00000  0.59024  1  0;
  12   500.00  1.07205 -0.41889  2  0;
  13    26.00  1.00000 -0.31173  2  0;
  14   500.00  1.06735 -0.43499  2  0;
  15    24.00  0.96000 -0.38002  2  0;
  16   500.00  1.04856 -0.51874  2  0;
  17   345.00  1.03559 -0.06783  1  0;
  18    22.00  1.00000 -0.01556  1  0;
  19   500.00  1.05593 -0.51787  2  0;
  20   500.00  1.07024 -0.39991  2  0;
  21   500.00  1.06042 -0.45419  2  0;
  22   500.00  1.04692 -0.38714  2  0;
  23   500.00  1.02564 -0.55056  2  0;
  24   500.00  1.05571 -0.40937  2  0;
  25   500.00  1.04116 -0.54399  2  0;
  26   500.00  1.05131 -0.27215  2  0;
  27   500.00  1.04672 -0.74197  2  0;
  28   500.00  1.06584 -0.10117  1  0;
  29   500.00  1.06933 -0.48972  1  0;
  30    20.00  1.00000  0.43288  1  0;
  31   500.00  1.03634  0.36654  1  0;
  32   500.00  1.07861  0.86160  1  0;
  33   230.00  0.97855  0.94190  1  0;
  34   230.00  1.00113  1.10025  1  0;
  35    20.00  1.02000  1.18637  1  0;
  36    22.00  1.00900  0.04306  1  0;
  37   500.00  1.06031 -0.73775  2  0;
  38   500.00  1.08090 -0.80898  2  0;
  39   230.00  1.03195 -0.82761  2  0;
  40    18.00  1.02000 -0.80468  2  0;
  41   230.00  1.02337 -0.89117  2  0;
  42   230.00  1.03129 -0.88644  2  0;
  43    18.00  1.00000 -0.82863  2  0;
  44   345.00  1.05257 -0.07643  1  0;
  45    26.00  1.05000  0.00489  1  0;
  46   230.00  1.03475 -0.83354  2  0;
  47    11.50  1.02000 -0.82722  2  0;
  48   230.00  1.03402 -0.83721  2  0;
  49   500.00  1.07212 -0.79595  2  0;
  50   230.00  1.02362 -0.90730  2  0;
  51   138.00  1.03256 -0.90828  2  0;
  52   287.00  1.03663 -0.88757  2  0;
  53   287.00  1.03663 -0.88757  2  0;
  54   230.00  1.02728 -0.91193  2  0;
  55   230.00  1.02516 -0.87602  2  0;
  56   500.00  1.04304 -0.83414  2  0;
  57   230.00  1.02484 -0.90791  2  0;
  58   230.00  1.02394 -0.89557  2  0;
  59   230.00  1.03112 -0.85601  2  0;
  60   230.00  1.03832 -0.82513  2  0;
  61   230.00  1.02073 -0.84450  2  0;
  62   230.00  1.02930 -0.85806  2  0;
  63   287.00  1.05209 -0.77865  2  0;
  64   500.00  1.05865 -0.74334  2  0;
  65    20.00  1.00000  0.99038  1  0;
  66   500.00  1.04928  0.84351  1  0;
  67   115.00  1.06863 -0.29633  1  0;
  68   230.00  1.06591 -0.25498  1  0;
  69   500.00  1.08919 -0.23293  1  0;
  70    13.80  1.05500 -0.13896  1  0;
  71   230.00  1.06158 -0.26384  1  0;
  72   500.00  1.08964 -0.23482  1  0;
  73   500.00  1.07839 -0.02381  1  0;
  74   500.00  1.07000  0.00286  1  0;
  75   500.00  1.03705 -0.21279  1  0;
  76   500.00  1.08283 -0.19466  1  0;
  77    13.80  1.00000  0.00000  1  0;
  78   500.00  1.04946  0.00393  1  0;
  79    20.00  1.00000  0.46525  1  0;
  80   500.00  1.04993  0.21187  1  0;
  81   500.00  1.05295 -0.34216  1  0;
  82   500.00  1.06740 -0.30010  1  0;
  83   500.00  1.05433 -0.40856  1  0;
  84   500.00  1.06194 -0.09098  1  0;
  85   345.00  0.99845 -0.02751  1  0;
  86   500.00  1.05818 -0.31912  1  0;
  87   500.00  1.06532 -0.32810  1  0;
  88   500.00  1.07143 -0.28028  1  0;
  89   500.00  1.05061 -0.24743  1  0;
  90   500.00  1.06088 -0.34662  1  0;
  91   500.00  1.07997 -0.38144  1  0;
  92   500.00  1.06943 -0.30145  1  0;
  93   500.00  1.06860 -0.39287  1  0;
  94   500.00  1.07170 -0.31258  1  0;
  95   500.00  1.07926 -0.38600  1  0;
  96   500.00  1.06916 -0.30145  1  0;
  97   500.00  1.06760 -0.39806  1  0;
  98   500.00  1.07104 -0.31316  1  0;
  99   500.00  0.97283  0.14075  1  0;
 100   200.00  1.13096 -0.61207  3  0;
 101   200.00  1.13613 -0.53356  3  0;
 102   500.00  1.05297 -0.80723  2  0;
 103    25.00  0.98000 -0.74069  2  0;
 104   500.00  1.04707 -0.83446  2  0;
 105   200.00  1.14090 -0.59850  3  0;
 106   200.00  1.14015 -0.60523  3  0;
 107   500.00  1.04926 -0.86675  2  0;
 108   500.00  1.05934 -0.85062  2  0;
 109   200.00  1.16705 -0.90028  2  0;
 110   500.00  1.04639 -0.87139  2  0;
 111   500.00  1.03727 -0.54372  3  0;
 112    20.00  1.02000 -0.26390  3  0;
 113   200.00  1.12385 -0.43997  3  0;
 114   500.00  1.03453 -0.48882  3  0;
 115   500.00  1.01341 -0.56124  3  0;
 116    20.00  1.05000 -0.62451  3  0;
 117   200.00  1.12743 -0.69360  3  0;
 118    20.00  1.00000 -0.53870  3  0;
 119   500.00  0.99815 -0.68241  3  0;
 120   500.00  1.05025 -0.42165  3  0;
 121   500.00  1.01142 -0.66554  3  0;
 122   500.00  1.02785 -0.53883  3  0;
 123   500.00  0.98098 -0.81551  3  0;
 124   500.00  1.04054 -0.38549  3  0;
 125   500.00  1.01078 -0.63255  3  0;
 126   500.00  1.04054 -0.38549  3  0;
 127   500.00  1.01078 -0.63255  3  0;
 128   500.00  1.01257 -0.45163  3  0;
 129   500.00  0.99882 -0.79348  3  0;
 130   500.00  1.01754 -0.47807  3  0;
 131   500.00  0.99876 -0.72490  3  0;
 132   500.00  0.97999 -0.64650  2  0;
 133   500.00  1.07047 -0.90480  2  0;
 134   500.00  0.97141 -0.61355  2  0;
 135   500.00  1.06807 -0.87489  2  0;
 136   500.00  1.03539 -0.76165  2  0;
 137   230.00  1.01009 -0.92333  2  0;
 138    20.00  1.02000 -0.45456  2  0;
 139   500.00  1.05122 -0.57919  2  0;
 140    20.00  1.02000 -0.86846  2  0;
 141   230.00  1.01186 -0.97608  2  0;
 142   500.00  1.05498 -0.80659  2  0;
 143   230.00  1.00705 -0.96357  2  0;
 144    20.00  1.05000 -0.79525  2  0;
 145   500.00  1.04087 -0.86941  2  0;
 146   230.00  1.03821 -0.87721  2  0;
 147   500.00  1.06999 -0.51384  2  0;
 148    22.00  1.05000 -0.36823  2  0;
 149    20.00  1.01000 -0.69302  2  0;
 150   230.00  1.00600 -0.90446  2  0;
 151   500.00  1.04128 -0.87638  2  0;
 152   500.00  1.03694 -0.83584  2  0;
 153   500.00  1.06118 -0.85657  2  0;
 154   230.00  0.99489 -0.90360  2  0;
 155   345.00  1.04288 -0.04231  1  0;
 156   345.00  1.04464 -0.05940  1  0;
 157   230.00  1.04624 -0.06930  1  0;
 158   345.00  1.03705  0.08554  1  0;
 159    20.00  1.05000  0.16806  1  0;
 160   345.00  1.05596 -0.03515  1  0;
 161   230.00  1.04453  0.01073  1  0;
 162    20.00  1.00000  0.05972  1  0;
 163   345.00  1.03679 -0.04275  1  0;
 164   345.00  1.04044 -0.02458  1  0;
 165   345.00  1.03514 -0.01914  1  0;
 166   345.00  1.05190 -0.00957  1  0;
 167   345.00  1.03911 -0.05989  1  0;
 168   500.00  1.06105 -0.34597  3  0;
 169   500.00  1.02556 -0.55421  3  0;
 170   500.00  1.06179 -0.33276  3  0;
 171   500.00  1.02702 -0.55472  3  0;
 172   500.00  1.05696 -0.30521  3  0;
 173   500.00  1.03194 -0.65014  3  0;
 174   500.00  1.04651 -0.84420  2  0;
 175   500.00  1.05458 -0.86291  2  0;
 176   500.00  1.04624 -0.84411  2  0;
 177   500.00  1.05470 -0.86294  2  0;
 178   500.00  1.04598 -0.84389  2  0;
 179   500.00  1.05705 -0.86252  2  0;
 180   500.00  0.98436 -0.11702  1  0;
   ];

% Swing Bus
SW.con = [ ...
  77 10400.00  13.80  1.00000 0.00  0.25471 -0.17788 1.1 0.9  0.49760 1];

% Generator Bus Data
PV.con = [ ...
   4 1600.00  20.00  0.50000  1.04000  0.18750 -0.18750 1.1 0.9 1  1;
   6 2100.00  22.00  0.49905  0.95000  0.19048 -0.19048 1.1 0.9 1  1;
   9 4300.00  22.00  0.50233  1.00000  0.16279 -0.11628 1.1 0.9 1  1;
  11 4100.00  20.00  0.50000  1.00000  0.21951 -0.21951 1.1 0.9 1  1;
  13 3400.00  26.00  0.49706  1.00000  0.20588 -0.08235 1.1 0.9 1  1;
  15 5300.00  24.00  0.49811  0.96000  0.24528 -0.16981 1.1 0.9 1  1;
  18 2000.00  22.00  0.48100  1.00000  0.15000 -0.15000 1.1 0.9 1  1;
  30 8900.00  20.00  0.50000  1.00000  0.44944 -0.44944 1.1 0.9 1  1;
  35 9000.00  20.00  0.49778  1.02000  0.59111 -0.38889 1.1 0.9 1  1;
  36 3300.00  22.00  0.49697  1.00900  0.18182 -0.15909 1.1 0.9 1  1;
  40  400.00  18.00  0.50000  1.02000  0.67000 -0.33500 1.1 0.9 1  1;
  43  650.00  18.00  0.50000  1.00000  0.46154 -0.33846 1.1 0.9 1  1;
  45 3600.00  26.00  0.49444  1.05000  0.23611 -0.12222 1.1 0.9 1  1;
  47  220.00  11.50  0.50000  1.02000  0.45455 -0.45455 1.1 0.9 1  1;
  65 5800.00  20.00  0.50172  1.00000  0.25862 -0.17241 1.1 0.9 1  1;
  70 2600.00  13.80  0.50038  1.05500  0.26615 -0.27346 1.1 0.9 1  1;
  79 20000.0  20.00  0.49750  1.00000  0.28900 -0.10000 1.1 0.9 1  1;
 103 1500.00  25.00  0.51000  0.98000  0.22000 -0.20667 1.1 0.9 1  1;
 112 2100.00  20.00  0.50333  1.02000  0.19048 -0.19048 1.1 0.9 1  1;
 116 1200.00  20.00  0.49500  1.05000  0.25000 -0.25000 1.1 0.9 1  1;
 118 6900.00  20.00  0.50246  1.00000  0.36232 -0.14493 1.1 0.9 1  1;
 138 2000.00  20.00  0.49135  1.02000  0.15000 -0.15000 1.1 0.9 1  1;
 140 6400.00  20.00  0.49922  1.02000  0.31250 -0.14063 1.1 0.9 1  1;
 144 3400.00  20.00  0.49706  1.05000  0.26471 -0.11765 1.1 0.9 1  1;
 148 3400.00  22.00  0.49412  1.05000  0.20588 -0.08824 1.1 0.9 1  1;
 149 4400.00  20.00  0.50000  1.01000  0.13636 -0.13636 1.1 0.9 1  1;
 159 3300.00  20.00  0.50455  1.05000  3.03000 -3.03000 1.1 0.9 1  1;
 162  900.00  20.00  0.49444  1.00000 11.11000 -11.1100 1.1 0.9 1  1];

% Load Bus Data
PQ.con = [ ...
   2  100.00   500.00 17.50000 -0.56000 1.1 0.9 1  1;
   4  100.00    20.00  1.00000  0.00000 1.1 0.9 1  1;
   5  100.00   345.00 23.50000 -1.27000 1.1 0.9 1  1;
   6  100.00    22.00  1.00000  0.00000 1.1 0.9 1  1;
   8  100.00   345.00  2.39000 -0.56000 1.1 0.9 1  1;
   9  100.00    22.00  1.00000  0.00000 1.1 0.9 1  1;
  10  100.00   230.00  1.39700  0.23800 1.1 0.9 1  1;
  11  100.00    20.00  1.00000  0.00000 1.1 0.9 1  1;
  12  100.00   500.00  0.90000  0.70000 1.1 0.9 1  1;
  13  100.00    26.00  1.00000  0.00000 1.1 0.9 1  1;
  15  100.00    24.00  1.00000  0.00000 1.1 0.9 1  1;
  16  100.00   500.00  7.93400  2.07000 1.1 0.9 1  1;
  17  100.00   345.00  8.40000  0.05000 1.1 0.9 1  1;
  18  100.00    22.00  1.00000  0.00000 1.1 0.9 1  1;
  19  100.00   500.00  6.17000 -0.69000 1.1 0.9 1  1;
  30  100.00    20.00  1.00000  0.00000 1.1 0.9 1  1;
  31  100.00   500.00 44.00000 10.00000 1.1 0.9 1  1;
  34  100.00   230.00 36.00000  7.00000 1.1 0.9 1  1;
  35  100.00    20.00  1.00000  0.00000 1.1 0.9 1  1;
  36  100.00    22.00  1.00000  0.00000 1.1 0.9 1  1;
  37  100.00   500.00 -18.62000  9.71000 1.1 0.9 1  1;
  40  100.00    18.00  1.00000  0.00000 1.1 0.9 1  1;
  41  100.00   230.00  1.35000  0.27000 1.1 0.9 1  1;
  43  100.00    18.00  1.00000  0.00000 1.1 0.9 1  1;
  44  100.00   345.00 20.53000  9.07100 1.1 0.9 1  1;
  45  100.00    26.00  1.00000  0.00000 1.1 0.9 1  1;
  46  100.00   230.00 -0.72800 -0.17000 1.1 0.9 1  1;
  47  100.00    11.50  1.00000  0.00000 1.1 0.9 1  1;
  48  100.00   230.00  1.21000  0.25000 1.1 0.9 1  1;
  50  100.00   230.00  3.20000  0.65000 1.1 0.9 1  1;
  51  100.00   138.00  2.37200 -0.63200 1.1 0.9 1  1;
  54  100.00   230.00  1.38000  0.28000 1.1 0.9 1  1;
  55  100.00   230.00  8.07800  1.32100 1.1 0.9 1  1;
  57  100.00   230.00  1.17000  0.24000 1.1 0.9 1  1;
  58  100.00   230.00  1.21000  0.25000 1.1 0.9 1  1;
  59  100.00   230.00  8.87700 -0.06200 1.1 0.9 1  1;
  60  100.00   230.00 -27.71000 16.54000 1.1 0.9 1  1;
  61  100.00   230.00  4.01000  0.80600 1.1 0.9 1  1;
  62  100.00   230.00  2.05200  0.17600 1.1 0.9 1  1;
  63  100.00   287.00 -1.29000  0.32200 1.1 0.9 1  1;
  65  100.00    20.00  1.00000  0.00000 1.1 0.9 1  1;
  66  100.00   500.00 17.00000  3.00000 1.1 0.9 1  1;
  67  100.00   115.00  1.60000  0.31250 1.1 0.9 1  1;
  68  100.00   230.00 -0.67500  1.60000 1.1 0.9 1  1;
  69  100.00   500.00 -0.44200  0.22000 1.1 0.9 1  1;
  70  100.00    13.80  1.00000  0.00000 1.1 0.9 1  1;
  71  100.00   230.00 31.37000 16.81000 1.1 0.9 1  1;
  73  100.00   500.00 -15.25000 -0.50000 1.1 0.9 1  1;
  75  100.00   500.00 25.84000  3.94000 1.1 0.9 1  1;
  76  100.00   500.00 32.00000 11.00000 1.1 0.9 1  1;
  77  100.00    13.80  1.00000  0.00000 1.1 0.9 1  1;
  78  100.00   500.00 35.00000  5.00000 1.1 0.9 1  1;
  79  100.00    20.00  1.00000  0.00000 1.1 0.9 1  1;
  80  100.00   500.00 50.00000  4.00000 1.1 0.9 1  1;
  82  100.00   500.00 -0.66600 -0.97000 1.1 0.9 1  1;
  83  100.00   500.00 -3.39000 -1.19000 1.1 0.9 1  1;
  85  100.00   345.00  6.10000 -4.14000 1.1 0.9 1  1;
 100  100.00   200.00 -0.43300  0.20000 1.1 0.9 1  1;
 101  100.00   200.00  2.10400 -0.77000 1.1 0.9 1  1;
 102  100.00   500.00  0.50000  0.25000 1.1 0.9 1  1;
 103  100.00    25.00  1.00000  0.00000 1.1 0.9 1  1;
 104  100.00   500.00  3.05000 -0.07600 1.1 0.9 1  1;
 105  100.00   200.00  0.27500 -0.00100 1.1 0.9 1  1;
 106  100.00   200.00  0.08010  0.00000 1.1 0.9 1  1;
 107  100.00   500.00  2.65000  0.14000 1.1 0.9 1  1;
 108  100.00   500.00  0.55600 -3.29000 1.1 0.9 1  1;
 109  100.00   200.00  7.77600  0.32600 1.1 0.9 1  1;
 110  100.00   500.00  0.40000  0.21500 1.1 0.9 1  1;
 111  100.00   500.00 -1.89000  0.61500 1.1 0.9 1  1;
 112  100.00    20.00  1.00000  0.00000 1.1 0.9 1  1;
 113  100.00   200.00  1.48000  0.00000 1.1 0.9 1  1;
 115  100.00   500.00 -0.00700  1.18500 1.1 0.9 1  1;
 116  100.00    20.00  1.00000  0.00000 1.1 0.9 1  1;
 117  100.00   200.00  8.84000  0.54800 1.1 0.9 1  1;
 118  100.00    20.00  1.00000  0.00000 1.1 0.9 1  1;
 119  100.00   500.00 56.61000 34.91000 1.1 0.9 1  1;
 136  100.00   500.00  8.56000  0.19600 1.1 0.9 1  1;
 137  100.00   230.00  1.75000  0.18000 1.1 0.9 1  1;
 138  100.00    20.00  1.00000  0.00000 1.1 0.9 1  1;
 139  100.00   500.00  9.02300 -0.11400 1.1 0.9 1  1;
 140  100.00    20.00  1.00000  0.00000 1.1 0.9 1  1;
 141  100.00   230.00 31.91000  6.30000 1.1 0.9 1  1;
 142  100.00   500.00  2.04200 -0.28200 1.1 0.9 1  1;
 143  100.00   230.00  3.77400  0.64500 1.1 0.9 1  1;
 144  100.00    20.00  1.00000  0.00000 1.1 0.9 1  1;
 145  100.00   500.00 30.98000 11.89000 1.1 0.9 1  1;
 148  100.00    22.00  1.00000  0.00000 1.1 0.9 1  1;
 149  100.00    20.00  1.00000  0.00000 1.1 0.9 1  1;
 150  100.00   230.00 31.18000  0.78000 1.1 0.9 1  1;
 151  100.00   500.00 12.30000  0.72800 1.1 0.9 1  1;
 152  100.00   500.00  4.06000  0.41000 1.1 0.9 1  1;
 154  100.00   230.00 10.66000 -0.10800 1.1 0.9 1  1;
 155  100.00   345.00  4.57700  0.81700 1.1 0.9 1  1;
 156  100.00   345.00  0.33900  0.11900 1.1 0.9 1  1;
 157  100.00   230.00  1.48000 -0.07900 1.1 0.9 1  1;
 158  100.00   345.00  1.16100  0.38400 1.1 0.9 1  1;
 159  100.00    20.00  1.00000  0.00000 1.1 0.9 1  1;
 160  100.00   345.00 -0.62000  0.12800 1.1 0.9 1  1;
 161  100.00   230.00  2.55000  1.00000 1.1 0.9 1  1;
 162  100.00    20.00  1.00000  0.00000 1.1 0.9 1  1;
 164  100.00   345.00  0.31600  0.11500 1.1 0.9 1  1;
 165  100.00   345.00  1.41200  0.71400 1.1 0.9 1  1;
 166  100.00   345.00  3.79000 -0.43000 1.1 0.9 1  1;
 167  100.00   345.00  1.85000  0.78500 1.1 0.9 1  1;
   ];

% Shunt Data
Shunt.con = [ ...
   7  100.00   500.00 60  0.00000 -0.99042  1;
   8  100.00   345.00 60  0.00000 -1.52204  1;
  12  100.00   500.00 60  0.00000 -1.65319  1;
  14  100.00   500.00 60  0.00000 -3.43215  1;
  16  100.00   500.00 60  0.00000 -1.32791  1;
  17  100.00   345.00 60  0.00000  3.63654  1;
  19  100.00   500.00 60  0.00000 -3.82966  1;
  37  100.00   500.00 60  0.00000  8.11195  1;
  44  100.00   345.00 60  0.00000  3.88119  1;
  49  100.00   500.00 60  0.00000 -0.69599  1;
  60  100.00   230.00 60  0.00000 19.90542  1;
  63  100.00   287.00 60  0.00000 -0.97571  1;
  68  100.00   230.00 60  0.00000  5.07716  1;
  71  100.00   230.00 60  0.00000  7.02777  1;
  72  100.00   500.00 60  0.00000  3.89114  1;
  76  100.00   500.00 60  0.00000  8.69367  1;
  78  100.00   500.00 60  0.00000  4.99379  1;
  80  100.00   500.00 60  0.00000 10.88587  1;
  81  100.00   500.00 60  0.00000 -1.98430  1;
  82  100.00   500.00 60  0.00000 -5.91574  1;
  83  100.00   500.00 60  0.00000 -0.98956  1;
  84  100.00   500.00 60  0.00000 -1.95083  1;
  85  100.00   345.00 60  0.00000 -8.72709  1;
 104  100.00   500.00 60  0.00000 -0.83003  1;
 108  100.00   500.00 60  0.00000 -2.91392  1;
 109  100.00   200.00 60  0.00000 -0.95448  1;
 113  100.00   200.00 60  0.00000 -1.01343  1;
 114  100.00   500.00 60  0.00000 -0.85026  1;
 115  100.00   500.00 60  0.00000 -0.88608  1;
 117  100.00   200.00 60  0.00000 -0.25175  1;
 119  100.00   500.00 60  0.00000 15.05562  1;
 139  100.00   500.00 60  0.00000 -2.88673  1;
 145  100.00   500.00 60  0.00000  3.69206  1;
 147  100.00   500.00 60  0.00000 -1.71197  1;
 154  100.00   230.00 60  0.00000 -1.91956  1;
 155  100.00   345.00 60  0.00000 -0.55167  1;
 158  100.00   345.00 60  0.00000 -2.04559  1;
 164  100.00   345.00 60  0.00000 -0.16628  1;
 166  100.00   345.00 60  0.00000 -0.45188  1;
 180  100.00   500.00 60  0.00000 -2.27045  1;
   ];

Line.con = [ ...
   3    8   100.00   345.00 60 0  0.00  0.00179  0.01988  2.57600  0.00000  0.00000     0.000    0.000    0.000  1;
  17    5   100.00   345.00 60 0  0.00  0.00977  0.11000  2.00000  0.00000  0.00000     0.000    0.000    0.000  1;
   5  160   100.00   345.00 60 0  0.00  0.00811  0.13690  2.43480  0.00000  0.00000     0.000    0.000    0.000  1;
   7   28   100.00   500.00 60 0  0.00  0.00000 -0.00408  0.00000  0.00000  0.00000     0.000    0.000    0.000  1;
   8   17   100.00   345.00 60 0  0.00  0.00050  0.00530  0.08820  0.00000  0.00000     0.000    0.000    0.000  1;
 163    8   100.00   345.00 60 0  0.00  0.00480  0.04360  0.70780  0.00000  0.00000     0.000    0.000    0.000  1;
  12   20   100.00   500.00 60 0  0.00  0.00000 -0.00634  0.00000  0.00000  0.00000     0.000    0.000    0.000  1;
  12   22   100.00   500.00 60 0  0.00  0.00000 -0.01188  0.00000  0.00000  0.00000     0.000    0.000    0.000  1;
  12  139   100.00   500.00 60 0  0.00  0.00280  0.02110  1.01940  0.00000  0.00000     0.000    0.000   16.300  1;
  21   14   100.00   500.00 60 0  0.00  0.00000 -0.00634  0.00000  0.00000  0.00000     0.000    0.000    0.000  1;
  14   24   100.00   500.00 60 0  0.00  0.00000 -0.00826  0.00000  0.00000  0.00000     0.000    0.000    0.000  1;
  14   26   100.00   500.00 60 0  0.00  0.00000 -0.01795  0.00000  0.00000  0.00000     0.000    0.000    0.000  1;
  29   14   100.00   500.00 60 0  0.00  0.00000 -0.00612  0.00000  0.00000  0.00000     0.000    0.000    0.000  1;
  16   19   100.00   500.00 60 0  0.00  0.00040  0.00960  0.90380  0.00000  0.00000     0.000    0.000    0.000  1;
  16   19   100.00   500.00 60 0  0.00  0.00040  0.00960  0.90380  0.00000  0.00000     0.000    0.000    0.000  1;
  16  136   100.00   500.00 60 0  0.00  0.00259  0.02967  2.15300  0.00000  0.00000     0.000    0.000   18.000  1;
  16  136   100.00   500.00 60 0  0.00  0.00259  0.02967  2.15300  0.00000  0.00000     0.000    0.000   18.000  1;
  23   19   100.00   500.00 60 0  0.00  0.00000 -0.01188  0.00000  0.00000  0.00000     0.000    0.000    0.000  1;
  25   19   100.00   500.00 60 0  0.00  0.00000 -0.00826  0.00000  0.00000  0.00000     0.000    0.000    0.000  1;
  20   21   100.00   500.00 60 0  0.00  0.00077  0.01804  1.39842  0.00000  0.00000     0.000    0.000    0.000  1;
  22   23   100.00   500.00 60 0  0.00  0.00241  0.05865  4.86560  0.00000  0.00000     0.000    0.000    0.000  1;
  24   25   100.00   500.00 60 0  0.00  0.00179  0.04244  3.39220  0.00000  0.00000     0.000    0.000    0.000  1;
  26   27   100.00   500.00 60 0  0.00  0.00207  0.04959  3.95160  0.00000  0.00000     0.000    0.000    0.000  1;
  27  139   100.00   500.00 60 0  0.00  0.00000 -0.01795  0.00000  0.00000  0.00000     0.000    0.000    0.000  1;
  28   29   100.00   500.00 60 0  0.00  0.00177  0.04189  3.34460  0.00000  0.00000     0.000    0.000    0.000  1;
  31   32   100.00   500.00 60 0  0.00  0.00350  0.07000  4.60600  0.00000  0.00000     0.000    0.000    0.000  1;
  31   80   100.00   500.00 60 0  0.00  0.00083  0.02390  3.30000  0.00000  0.00000     0.000    0.000    0.000  1;
  33   34   100.00   230.00 60 0  0.00  0.00200  0.02000  0.80000  0.00000  0.00000     0.000    0.000    0.000  1;
  37   38   100.00   500.00 60 0  0.00  0.00074  0.01861  1.40264  0.00000  0.00000     0.000    0.000    0.000  1;
  37   56   100.00   500.00 60 0  0.00  0.00082  0.01668  1.18802  0.00000  0.00000     0.000    0.000    0.000  1;
  37   64   100.00   500.00 60 0  0.00  0.00000  0.00159  0.12002  0.00000  0.00000     0.000    0.000    0.000  1;
  37   64   100.00   500.00 60 0  0.00  0.00000  0.00159  0.12002  0.00000  0.00000     0.000    0.000    0.000  1;
  39   46   100.00   230.00 60 0  0.00  0.00221  0.03346  0.07338  0.00000  0.00000     0.000    0.000    0.000  1;
  39   48   100.00   230.00 60 0  0.00  0.00290  0.03800  0.08240  0.00000  0.00000     0.000    0.000    0.000  1;
  39   59   100.00   230.00 60 0  0.00  0.00309  0.04677  0.10080  0.00000  0.00000     0.000    0.000    0.000  1;
  39   60   100.00   230.00 60 0  0.00  0.00226  0.03422  0.07506  0.00000  0.00000     0.000    0.000    0.000  1;
  55   41   100.00   230.00 60 0  0.00  0.00047  0.00723  0.01624  0.00000  0.00000     0.000    0.000    0.000  1;
  41   58   100.00   230.00 60 0  0.00  0.00035  0.00536  0.01204  0.00000  0.00000     0.000    0.000    0.000  1;
  50   42   100.00   230.00 60 0  0.00  0.00220  0.03422  0.07716  0.00000  0.00000     0.000    0.000    0.000  1;
  50   42   100.00   230.00 60 0  0.00  0.00238  0.03669  0.08284  0.00000  0.00000     0.000    0.000    0.000  1;
  57   42   100.00   230.00 60 0  0.00  0.00201  0.03074  0.06886  0.00000  0.00000     0.000    0.000    0.000  1;
  42   58   100.00   230.00 60 0  0.00  0.00281  0.04296  0.09648  0.00000  0.00000     0.000    0.000    0.000  1;
  44  160   100.00   345.00 60 0  0.00  0.00180  0.02450  0.43920  0.00000  0.00000     0.000    0.000    0.000  1;
  44  160   100.00   345.00 60 0  0.00  0.00180  0.02450  0.43920  0.00000  0.00000     0.000    0.000    0.000  1;
  48   46   100.00   230.00 60 0  0.00  0.00029  0.00434  0.00950  0.00000  0.00000     0.000    0.000    0.000  1;
  48   55   100.00   230.00 60 0  0.00  0.00229  0.01583  0.03060  0.00000  0.00000     0.000    0.000    0.000  1;
  48   55   100.00   230.00 60 0  0.00  0.00229  0.01583  0.03060  0.00000  0.00000     0.000    0.000    0.000  1;
  48   59   100.00   230.00 60 0  0.00  0.00141  0.00967  0.01940  0.00000  0.00000     0.000    0.000    0.000  1;
  48   59   100.00   230.00 60 0  0.00  0.00141  0.00967  0.01940  0.00000  0.00000     0.000    0.000    0.000  1;
  48   59   100.00   230.00 60 0  0.00  0.00161  0.00971  0.01928  0.00000  0.00000     0.000    0.000    0.000  1;
  48   59   100.00   230.00 60 0  0.00  0.00161  0.00971  0.01928  0.00000  0.00000     0.000    0.000    0.000  1;
  48   60   100.00   230.00 60 0  0.00  0.00027  0.00393  0.00918  0.00000  0.00000     0.000    0.000    0.000  1;
  48   60   100.00   230.00 60 0  0.00  0.00027  0.00393  0.00918  0.00000  0.00000     0.000    0.000    0.000  1;
  48   60   100.00   230.00 60 0  0.00  0.00027  0.00393  0.00918  0.00000  0.00000     0.000    0.000    0.000  1;
  48   62   100.00   230.00 60 0  0.00  0.00138  0.01116  0.02470  0.00000  0.00000     0.000    0.000    0.000  1;
  48   62   100.00   230.00 60 0  0.00  0.00138  0.01116  0.02470  0.00000  0.00000     0.000    0.000    0.000  1;
  64   49   100.00   500.00 60 0  0.00  0.00083  0.01884  1.66668  0.00000  0.00000     0.000    0.000    0.000  1;
  50   57   100.00   230.00 60 0  0.00  0.00037  0.00366  0.00830  0.00000  0.00000     0.000    0.000    0.000  1;
  50   58   100.00   230.00 60 0  0.00  0.00055  0.00586  0.01246  0.00000  0.00000     0.000    0.000    0.000  1;
  52   63   100.00   287.00 60 0  0.00  0.01070  0.07905  0.36670  0.00000  0.00000     0.000    0.000    0.000  1;
  53   63   100.00   287.00 60 0  0.00  0.01070  0.07905  0.36670  0.00000  0.00000     0.000    0.000    0.000  1;
  57   54   100.00   230.00 60 0  0.00  0.00073  0.01025  0.02558  0.00000  0.00000     0.000    0.000    0.000  1;
  57   54   100.00   230.00 60 0  0.00  0.00073  0.01025  0.02558  0.00000  0.00000     0.000    0.000    0.000  1;
  55   58   100.00   230.00 60 0  0.00  0.00119  0.01244  0.02798  0.00000  0.00000     0.000    0.000    0.000  1;
  55   58   100.00   230.00 60 0  0.00  0.00119  0.01244  0.02798  0.00000  0.00000     0.000    0.000    0.000  1;
  62   55   100.00   230.00 60 0  0.00  0.00128  0.00979  0.02120  0.00000  0.00000     0.000    0.000    0.000  1;
  57   58   100.00   230.00 60 0  0.00  0.00110  0.01189  0.02514  0.00000  0.00000     0.000    0.000    0.000  1;
 137   61   100.00   230.00 60 0  0.00  0.00140  0.02640  0.10200  0.00000  0.00000     0.000    0.000   30.700  1;
 150   61   100.00   230.00 60 0  0.00  0.00065  0.01187  0.04672  0.00000  0.00000     0.000    0.000   30.700  1;
 150   61   100.00   230.00 60 0  0.00  0.00065  0.01187  0.04672  0.00000  0.00000     0.000    0.000   30.700  1;
 139   64   100.00   500.00 60 0  0.00  0.00179  0.02524  0.53546  0.00000  0.00000     0.000    0.000    0.000  1;
 139   64   100.00   500.00 60 0  0.00  0.00179  0.02524  0.53546  0.00000  0.00000     0.000    0.000    0.000  1;
 142   64   100.00   500.00 60 0  0.00  0.00020  0.00410  0.29620  0.00000  0.00000     0.000    0.000    0.000  1;
  78   66   100.00   500.00 60 0  0.00  0.00070  0.07400  4.87000  0.00000  0.00000     0.000    0.000    0.000  1;
  68   71   100.00   230.00 60 0  0.00  0.00006  0.00131  0.00378  0.00000  0.00000     0.000    0.000   30.200  1;
  68   71   100.00   230.00 60 0  0.00  0.00006  0.00116  0.00332  0.00000  0.00000     0.000    0.000   30.200  1;
  69   72   100.00   500.00 60 0  0.00  0.00001  0.00030  0.01434  0.00000  0.00000     0.000    0.000   34.500  1;
  69   72   100.00   500.00 60 0  0.00  0.00001  0.00030  0.01844  0.00000  0.00000     0.000    0.000   34.500  1;
  69   76   100.00   500.00 60 0  0.00  0.00023  0.00451  0.33320  0.00000  0.00000     0.000    0.000   21.750  1;
  69   76   100.00   500.00 60 0  0.00  0.00020  0.00446  0.30500  0.00000  0.00000     0.000    0.000   21.750  1;
  75   73   100.00   500.00 60 0  0.00  0.00179  0.01405  3.68000  0.00000  0.00000     0.000    0.000    0.000  1;
  78   74   100.00   500.00 60 0  0.00  0.00113  0.02069  1.85526  0.00000  0.00000     0.000    0.000    0.000  1;
  75   76   100.00   500.00 60 0  0.00  0.00196  0.03304  1.88000  0.00000  0.00000     0.000    0.000    0.000  1;
  75   78   100.00   500.00 60 0  0.00  0.00142  0.02258  1.88000  0.00000  0.00000     0.000    0.000    0.000  1;
  78   76   100.00   500.00 60 0  0.00  0.00120  0.02316  1.71520  0.00000  0.00000     0.000    0.000    0.000  1;
  78   76   100.00   500.00 60 0  0.00  0.00030  0.02000  3.60000  0.00000  0.00000     0.000    0.000    0.000  1;
  82   76   100.00   500.00 60 0  0.00  0.00063  0.01412  1.09756  0.00000  0.00000     0.000    0.000   34.500  1;
  82   76   100.00   500.00 60 0  0.00  0.00109  0.02408  1.55542  0.00000  0.00000     0.000    0.000   30.200  1;
  82   76   100.00   500.00 60 0  0.00  0.00108  0.02409  1.55348  0.00000  0.00000     0.000    0.000   30.200  1;
  80   78   100.00   500.00 60 0  0.00  0.00020  0.00820  1.30000  0.00000  0.00000     0.000    0.000    0.000  1;
  80   78   100.00   500.00 60 0  0.00  0.00020  0.00820  1.30000  0.00000  0.00000     0.000    0.000    0.000  1;
  81   99   100.00   500.00 60 0  0.00  0.00264  0.05356  5.29066  0.00000  0.00000     0.000    0.000   36.000  1;
  81  180   100.00   500.00 60 0  0.00  0.00000 -0.02667  0.00000  0.00000  0.00000     0.000    0.000   17.320  1;
  82   87   100.00   500.00 60 0  0.00  0.00041  0.00737  0.72694  0.00000  0.00000     0.000    0.000   34.500  1;
  82   91   100.00   500.00 60 0  0.00  0.00066  0.01266  0.95976  0.00000  0.00000     0.000    0.000   30.200  1;
  82   95   100.00   500.00 60 0  0.00  0.00066  0.01266  0.95976  0.00000  0.00000     0.000    0.000   30.200  1;
  83   89   100.00   500.00 60 0  0.00  0.00072  0.01382  1.27572  0.00000  0.00000     0.000    0.000   36.000  1;
  94   83   100.00   500.00 60 0  0.00  0.00078  0.01502  1.13810  0.00000  0.00000     0.000    0.000   30.200  1;
  98   83   100.00   500.00 60 0  0.00  0.00074  0.01413  1.06634  0.00000  0.00000     0.000    0.000   30.200  1;
  83  168   100.00   500.00 60 0  0.00  0.00000 -0.00720  0.00000  0.00000  0.00000     0.000    0.000   18.000  1;
  83  170   100.00   500.00 60 0  0.00  0.00000 -0.00864  0.00000  0.00000  0.00000     0.000    0.000   18.000  1;
  83  172   100.00   500.00 60 0  0.00  0.00000 -0.01000  0.00000  0.00000  0.00000     0.000    0.000    0.000  1;
  99   84   100.00   500.00 60 0  0.00  0.00000 -0.02667  0.00000  0.00000  0.00000     0.000    0.000   17.320  1;
 156   85   100.00   345.00 60 0  0.00  0.00620  0.06730  1.11560  0.00000  0.00000     0.000    0.000    0.000  1;
  88   86   100.00   500.00 60 0  0.00  0.00060  0.01036  1.01456  0.00000  0.00000     0.000    0.000   34.500  1;
  90   86   100.00   500.00 60 0  0.00  0.00012  0.00238  0.21926  0.00000  0.00000     0.000    0.000   36.000  1;
 180   86   100.00   500.00 60 0  0.00  0.00122  0.02373  2.20710  0.00000  0.00000     0.000    0.000   36.000  1;
  87   88   100.00   500.00 60 0  0.00  0.00000 -0.01263  0.00000  0.00000  0.00000     0.000    0.000   20.000  1;
  89   90   100.00   500.00 60 0  0.00  0.00000 -0.00858  0.00000  0.00000  0.00000     0.000    0.000   20.000  1;
  91   92   100.00   500.00 60 0  0.00  0.00000 -0.01263  0.00000  0.00000  0.00000     0.000    0.000   24.000  1;
  92   93   100.00   500.00 60 0  0.00  0.00074  0.01428  1.08220  0.00000  0.00000     0.000    0.000   30.200  1;
  93   94   100.00   500.00 60 0  0.00  0.00000 -0.01263  0.00000  0.00000  0.00000     0.000    0.000   24.000  1;
  95   96   100.00   500.00 60 0  0.00  0.00000 -0.01263  0.00000  0.00000  0.00000     0.000    0.000   20.000  1;
  96   97   100.00   500.00 60 0  0.00  0.00074  0.01428  1.08220  0.00000  0.00000     0.000    0.000   30.200  1;
  97   98   100.00   500.00 60 0  0.00  0.00000 -0.01263  0.00000  0.00000  0.00000     0.000    0.000   20.000  1;
 101  100   100.00   200.00 60 0  0.00  0.02482  0.16938  0.20232  0.00000  0.00000     0.000    0.000    8.380  1;
 100  117   100.00   200.00 60 0  0.00  0.01480  0.10101  0.12066  0.00000  0.00000     0.000    0.000    8.380  1;
 101  105   100.00   200.00 60 0  0.00  0.01382  0.09268  0.11060  0.00000  0.00000     0.000    0.000    7.470  1;
 101  106   100.00   200.00 60 0  0.00  0.01668  0.11381  0.13608  0.00000  0.00000     0.000    0.000    8.380  1;
 101  113   100.00   200.00 60 0  0.00  0.01113  0.06678  0.07286  0.00000  0.00000     0.000    0.000    7.520  1;
 101  113   100.00   200.00 60 0  0.00  0.01050  0.06540  0.06860  0.00000  0.00000     0.000    0.000    6.020  1;
 101  113   100.00   200.00 60 0  0.00  0.01105  0.06642  0.07160  0.00000  0.00000     0.000    0.000    7.520  1;
 101  117   100.00   200.00 60 0  0.00  0.03903  0.27403  0.31072  0.00000  0.00000     0.000    0.000    7.470  1;
 104  102   100.00   500.00 60 0  0.00  0.00079  0.01937  1.32850  0.00000  0.00000     0.000    0.000    0.000  1;
 102  108   100.00   500.00 60 0  0.00  0.00087  0.02087  1.45710  0.00000  0.00000     0.000    0.000    0.000  1;
 102  108   100.00   500.00 60 0  0.00  0.00087  0.02087  1.45710  0.00000  0.00000     0.000    0.000    0.000  1;
 107  104   100.00   500.00 60 0  0.00  0.00083  0.01985  0.00000  0.00000  0.00000     0.000    0.000   24.500  1;
 134  104   100.00   500.00 60 0  0.00  0.00093  0.03644  1.38950  0.00000  0.00000     0.000    0.000   24.500  1;
 104  135   100.00   500.00 60 0  0.00  0.00072  0.01600  1.08790  0.00000  0.00000     0.000    0.000   24.500  1;
 105  117   100.00   200.00 60 0  0.00  0.03058  0.20460  0.24472  0.00000  0.00000     0.000    0.000    7.470  1;
 106  117   100.00   200.00 60 0  0.00  0.02235  0.16106  0.18342  0.00000  0.00000     0.000    0.000    8.380  1;
 107  108   100.00   500.00 60 0  0.00  0.00153  0.01470  0.00000  0.00000  0.00000     0.000    0.000   15.600  1;
 110  107   100.00   500.00 60 0  0.00  0.00053  0.01297  0.00000  0.00000  0.00000     0.000    0.000   24.500  1;
 133  108   100.00   500.00 60 0  0.00  0.00002 -0.01331  0.00000  0.00000  0.00000     0.000    0.000   18.000  1;
 135  108   100.00   500.00 60 0  0.00  0.00002 -0.00998  0.00000  0.00000  0.00000     0.000    0.000   24.500  1;
 108  174   100.00   500.00 60 0  0.00  0.00000 -0.00935  0.00000  0.00000  0.00000     0.000    0.000   21.340  1;
 108  176   100.00   500.00 60 0  0.00  0.00000 -0.00944  0.00000  0.00000  0.00000     0.000    0.000   21.340  1;
 108  178   100.00   500.00 60 0  0.00  0.00000 -0.00935  0.00000  0.00000  0.00000     0.000    0.000   21.340  1;
 111  120   100.00   500.00 60 0  0.00  0.00000 -0.01000  0.00000  0.00000  0.00000     0.000    0.000   26.670  1;
 173  111   100.00   500.00 60 0  0.00  0.00000 -0.01000  0.00000  0.00000  0.00000     0.000    0.000    0.000  1;
 114  124   100.00   500.00 60 0  0.00  0.00002 -0.00998  0.00000  0.00000  0.00000     0.000    0.000   18.000  1;
 114  126   100.00   500.00 60 0  0.00  0.00002 -0.00998  0.00000  0.00000  0.00000     0.000    0.000   18.000  1;
 169  114   100.00   500.00 60 0  0.00  0.00000 -0.00720  0.00000  0.00000  0.00000     0.000    0.000   18.000  1;
 171  114   100.00   500.00 60 0  0.00  0.00000 -0.00720  0.00000  0.00000  0.00000     0.000    0.000   18.000  1;
 125  115   100.00   500.00 60 0  0.00  0.00001 -0.00666  0.00000  0.00000  0.00000     0.000    0.000   18.000  1;
 127  115   100.00   500.00 60 0  0.00  0.00001 -0.00666  0.00000  0.00000  0.00000     0.000    0.000   18.000  1;
 115  128   100.00   500.00 60 0  0.00  0.00001 -0.01120  0.00000  0.00000  0.00000     0.000    0.000   26.670  1;
 115  130   100.00   500.00 60 0  0.00  0.00001 -0.00720  0.00000  0.00000  0.00000     0.000    0.000   26.670  1;
 123  119   100.00   500.00 60 0  0.00  0.00000 -0.01000  0.00000  0.00000  0.00000     0.000    0.000   26.670  1;
 129  119   100.00   500.00 60 0  0.00  0.00001 -0.01120  0.00000  0.00000  0.00000     0.000    0.000   26.670  1;
 131  119   100.00   500.00 60 0  0.00  0.00001 -0.00360  0.00000  0.00000  0.00000     0.000    0.000   26.670  1;
 119  132   100.00   500.00 60 0  0.00  0.00001 -0.00755  0.00000  0.00000  0.00000     0.000    0.000    0.000  1;
 119  134   100.00   500.00 60 0  0.00  0.00001 -0.01098  0.00000  0.00000  0.00000     0.000    0.000   24.500  1;
 120  121   100.00   500.00 60 0  0.00  0.00076  0.01952  1.82450  0.00000  0.00000     0.000    0.000   28.940  1;
 121  122   100.00   500.00 60 0  0.00  0.00000 -0.01000  0.00000  0.00000  0.00000     0.000    0.000   26.670  1;
 122  123   100.00   500.00 60 0  0.00  0.00082  0.02119  1.98420  0.00000  0.00000     0.000    0.000   28.940  1;
 124  125   100.00   500.00 60 0  0.00  0.00140  0.02338  1.47500  0.00000  0.00000     0.000    0.000   23.960  1;
 126  127   100.00   500.00 60 0  0.00  0.00140  0.02338  1.47500  0.00000  0.00000     0.000    0.000   23.960  1;
 128  129   100.00   500.00 60 0  0.00  0.00154  0.03409  2.31140  0.00000  0.00000     0.000    0.000   24.500  1;
 130  131   100.00   500.00 60 0  0.00  0.00095  0.02102  1.42520  0.00000  0.00000     0.000    0.000   24.500  1;
 132  133   100.00   500.00 60 0  0.00  0.00165  0.05719  2.47740  0.00000  0.00000     0.000    0.000   24.500  1;
 136  152   100.00   500.00 60 0  0.00  0.00042  0.00905  0.66794  0.00000  0.00000     0.000    0.000   36.000  1;
 137  143   100.00   230.00 60 0  0.00  0.00190  0.02580  0.09840  0.00000  0.00000     0.000    0.000   23.200  1;
 137  150   100.00   230.00 60 0  0.00  0.00845  0.07034  0.15954  0.00000  0.00000     0.000    0.000   11.600  1;
 139  142   100.00   500.00 60 0  0.00  0.00193  0.02779  4.67120  0.00000  0.00000     0.000    0.000   36.000  1;
 147  139   100.00   500.00 60 0  0.00  0.00056  0.01415  1.04290  0.00000  0.00000     0.000    0.000   36.000  1;
 141  143   100.00   230.00 60 0  0.00  0.00110  0.01270  0.04800  0.00000  0.00000     0.000    0.000   23.200  1;
 142  145   100.00   500.00 60 0  0.00  0.00028  0.00753  0.51736  0.00000  0.00000     0.000    0.000   36.000  1;
 142  145   100.00   500.00 60 0  0.00  0.00035  0.00750  0.55360  0.00000  0.00000     0.000    0.000   36.000  1;
 142  147   100.00   500.00 60 0  0.00  0.00190  0.03100  4.14020  0.00000  0.00000     0.000    0.000   36.000  1;
 142  151   100.00   500.00 60 0  0.00  0.00060  0.01280  0.94620  0.00000  0.00000     0.000    0.000   36.000  1;
 142  153   100.00   500.00 60 0  0.00  0.00044  0.01125  0.82920  0.00000  0.00000     0.000    0.000   36.000  1;
 142  153   100.00   500.00 60 0  0.00  0.00044  0.01125  0.82920  0.00000  0.00000     0.000    0.000   36.000  1;
 146  143   100.00   230.00 60 0  0.00  0.00138  0.05399  0.15252  0.00000  0.00000     0.000    0.000   23.200  1;
 154  143   100.00   230.00 60 0  0.00  0.00320  0.03950  0.14400  0.00000  0.00000     0.000    0.000   23.200  1;
 145  151   100.00   500.00 60 0  0.00  0.00021  0.00457  0.32336  0.00000  0.00000     0.000    0.000   36.000  1;
 150  154   100.00   230.00 60 0  0.00  0.00285  0.03649  0.12656  0.00000  0.00000     0.000    0.000   23.200  1;
 150  154   100.00   230.00 60 0  0.00  0.00138  0.03399  0.11252  0.00000  0.00000     0.000    0.000   23.200  1;
 151  152   100.00   500.00 60 0  0.00  0.00040  0.00930  0.68560  0.00000  0.00000     0.000    0.000   36.000  1;
 175  153   100.00   500.00 60 0  0.00  0.00000 -0.00935  0.00000  0.00000  0.00000     0.000    0.000   21.340  1;
 177  153   100.00   500.00 60 0  0.00  0.00000 -0.00935  0.00000  0.00000  0.00000     0.000    0.000   21.340  1;
 179  153   100.00   500.00 60 0  0.00  0.00000 -0.00840  0.00000  0.00000  0.00000     0.000    0.000   21.000  1;
 156  155   100.00   345.00 60 0  0.00  0.00240  0.03320  0.58490  0.00000  0.00000     0.000    0.000    0.000  1;
 155  158   100.00   345.00 60 0  0.00  0.00520  0.06020  1.01000  0.00000  0.00000     0.000    0.000    0.000  1;
 155  158   100.00   345.00 60 0  0.00  0.00490  0.05370  0.88430  0.00000  0.00000     0.000    0.000    0.000  1;
 155  160   100.00   345.00 60 0  0.00  0.00170  0.02250  0.39920  0.00000  0.00000     0.000    0.000    0.000  1;
 155  160   100.00   345.00 60 0  0.00  0.00210  0.02380  0.38450  0.00000  0.00000     0.000    0.000    0.000  1;
 155  165   100.00   345.00 60 0  0.00  0.00120  0.01720  0.29870  0.00000  0.00000     0.000    0.000    0.000  1;
 155  167   100.00   345.00 60 0  0.00  0.00080  0.01060  0.20390  0.00000  0.00000     0.000    0.000    0.000  1;
 156  167   100.00   345.00 60 0  0.00  0.00160  0.02260  0.38100  0.00000  0.00000     0.000    0.000    0.000  1;
 157  161   100.00   230.00 60 0  0.00  0.01080  0.09650  0.32960  0.00000  0.00000     0.000    0.000    0.000  1;
 158  164   100.00   345.00 60 0  0.00  0.00960  0.08780  1.42650  0.00000  0.00000     0.000    0.000    0.000  1;
 158  165   100.00   345.00 60 0  0.00  0.00340  0.03920  0.65240  0.00000  0.00000     0.000    0.000    0.000  1;
 158  166   100.00   345.00 60 0  0.00  0.00340  0.03740  0.62080  0.00000  0.00000     0.000    0.000    0.000  1;
 158  166   100.00   345.00 60 0  0.00  0.00340  0.03720  0.61820  0.00000  0.00000     0.000    0.000    0.000  1;
 160  166   100.00   345.00 60 0  0.00  0.00380  0.03400  0.58240  0.00000  0.00000     0.000    0.000    0.000  1;
 160  166   100.00   345.00 60 0  0.00  0.00320  0.03490  0.57220  0.00000  0.00000     0.000    0.000    0.000  1;
 168  169   100.00   500.00 60 0  0.00  0.00103  0.02338  1.58040  0.00000  0.00000     0.000    0.000   30.200  1;
 170  171   100.00   500.00 60 0  0.00  0.00107  0.02470  1.52700  0.00000  0.00000     0.000    0.000   30.200  1;
 172  173   100.00   500.00 60 0  0.00  0.00103  0.03230  2.79600  0.00000  0.00000     0.000    0.000    0.000  1;
 174  175   100.00   500.00 60 0  0.00  0.00123  0.02659  1.98702  0.00000  0.00000     0.000    0.000   36.000  1;
 176  177   100.00   500.00 60 0  0.00  0.00123  0.02662  1.98880  0.00000  0.00000     0.000    0.000   36.000  1;
 178  179   100.00   500.00 60 0  0.00  0.00112  0.02517  1.83586  0.00000  0.00000     0.000    0.000   36.000  1;
   2    3   100.00   500.00 60 0  1.45  0.00000  0.01460  0.00000  1.00000  0.00000     0.000    0.000    0.000  1;
   2    4   100.00   500.00 60 0 25.00  0.00000  0.01730  0.00000  0.95450  0.00000     0.000    0.000    0.000  1;
   5    6   100.00   345.00 60 0 15.68  0.00000  0.01238  0.00000  1.00000  0.00000     0.000    0.000    0.000  1;
   5   11   100.00   345.00 60 0 17.25  0.00000  0.01500  0.00000  1.00000  0.00000     0.000    0.000    0.000  1;
   7    8   100.00   500.00 60 0  1.45  0.00000  0.01100  0.00000  1.06300  0.00000     0.000    0.000    0.000  1;
   7    8   100.00   500.00 60 0  1.45  0.00000  0.01100  0.00000  1.06300  0.00000     0.000    0.000    0.000  1;
   8    9   100.00   345.00 60 0 15.68  0.00000  0.00590  0.00000  1.00000  0.00000     0.000    0.000   30.000  1;
   8   10   100.00   345.00 60 0  1.50  0.00028  0.01380  0.00000  1.00000  0.00000     0.000    0.000    4.300  1;
   8   10   100.00   345.00 60 0  1.50  0.00029  0.01390  0.00000  1.00000  0.00000     0.000    0.000    4.300  1;
  12   13   100.00   500.00 60 0 19.23  0.00000  0.00666  0.00000  1.08000  0.00000     0.000    0.000   20.000  1;
  16   15   100.00   500.00 60 0 20.83  0.00006  0.00495  0.00000  1.10610  0.00000     0.000    0.000   30.660  1;
  17   18   100.00   345.00 60 0 15.68  0.00000  0.00600  0.00000  1.04350  0.00000     0.000    0.000    0.000  1;
  31   30   100.00   500.00 60 0 25.00  0.00000  0.00150  0.00000  1.05000  0.00000     0.000    0.000    0.000  1;
  32   33   100.00   500.00 60 0  2.17  0.00000  0.01000  0.00000  1.10000  0.00000     0.000    0.000    0.000  1;
  34   35   100.00   230.00 60 0 11.50  0.00000  0.00200  0.00000  1.00000  0.00000     0.000    0.000    0.000  1;
  85   36   100.00   345.00 60 0 15.68  0.00000  0.00460  0.00000  1.00000  0.00000     0.000    0.000   20.000  1;
  38   48   100.00   500.00 60 0  2.17  0.00013  0.00693  0.00000  1.05000  0.00000     0.000    0.000    0.000  1;
  39   40   100.00   230.00 60 0 12.78  0.00050  0.02380  0.00000  1.00000  0.00000     0.000    0.000    0.000  1;
  42   43   100.00   230.00 60 0 12.78  0.00058  0.02535  0.00000  1.04910  0.00000     0.000    0.000    0.000  1;
  44   45   100.00   345.00 60 0 13.27  0.00000  0.00520  0.00000  1.02500  0.00000     0.000    0.000    0.000  1;
  48   47   100.00   230.00 60 0 20.00  0.00499  0.11473  0.00000  1.04780  0.00000     0.000    0.000    0.000  1;
  49   48   100.00   500.00 60 0  2.17  0.00026  0.01386  0.00000  1.05000  0.00000     0.000    0.000    0.000  1;
  52   51   100.00   287.00 60 0  2.08  0.00059  0.01491  0.00000  1.00170  0.00000     0.000    0.000    0.000  1;
  53   51   100.00   287.00 60 0  2.08  0.00059  0.01491  0.00000  1.00170  0.00000     0.000    0.000    0.000  1;
  54   51   100.00   230.00 60 0  1.67  0.00030  0.01330  0.00000  1.00000  0.00000     0.000    0.000    0.000  1;
  54   51   100.00   230.00 60 0  1.67  0.00030  0.01340  0.00000  1.00000  0.00000     0.000    0.000    0.000  1;
  56   55   100.00   500.00 60 0  2.17  0.00013  0.01386  0.00000  1.01060  0.00000     0.000    0.000    0.000  1;
  56   55   100.00   500.00 60 0  2.17  0.00013  0.01386  0.00000  1.01060  0.00000     0.000    0.000    0.000  1;
  60   61   100.00   230.00 60 0  0.00  0.00000  0.00115  0.00000  1.01330  0.00000     0.000    0.000    0.000  1;
  64   63   100.00   500.00 60 0  1.74  0.00020  0.02338  0.00000  0.97890  0.00000     0.000    0.000    0.000  1;
  66   65   100.00   500.00 60 0 25.00  0.00000  0.00500  0.00000  1.09000  0.00000     0.000    0.000    0.000  1;
  68   67   100.00   230.00 60 0  2.00  0.00089  0.02990  0.00000  0.98730  0.00000     0.000    0.000    2.500  1;
  69   68   100.00   500.00 60 0  2.17  0.00020  0.01181  0.00000  1.02380  0.00000     0.000    0.000   10.080  1;
  69   68   100.00   500.00 60 0  2.17  0.00009  0.00735  0.00000  1.02380  0.00000     0.000    0.000   13.000  1;
  68   70   100.00   230.00 60 0 16.67  0.00000  0.01034  0.00000  1.04550  0.00000     0.000    0.000   20.000  1;
  72   71   100.00   500.00 60 0  2.17  0.00000  0.00221  0.00000  1.02340  0.00000     0.000    0.000   25.000  1;
  76   77   100.00   500.00 60 0 36.23  0.00000  0.00375  0.00000  1.09770  0.00000     0.000    0.000   50.000  1;
  80   79   100.00   500.00 60 0 25.00  0.00000  0.00250  0.00000  1.06600  0.00000     0.000    0.000    0.000  1;
  84   85   100.00   500.00 60 0  1.45  0.00000  0.00720  0.00000  1.05000  0.00000     0.000    0.000   15.000  1;
 102  103   100.00   500.00 60 0 20.00  0.00000  0.00980  0.00000  1.05000  0.00000     0.000    0.000    0.000  1;
 109  108   100.00   200.00 60 0  0.40  0.00030  0.01740  0.00000  1.11900  0.00000     0.000    0.000    8.400  1;
 109  108   100.00   200.00 60 0  0.40  0.00020  0.01190  0.00000  1.11900  0.00000     0.000    0.000   11.200  1;
 112  113   100.00    20.00 60 0  0.10  0.00000  0.02281  0.00000  0.91740  0.00000     0.000    0.000    0.000  1;
 113  114   100.00   200.00 60 0  0.40  0.00010  0.01740  0.00000  1.11900  0.00000     0.000    0.000    8.400  1;
 116  117   100.00    20.00 60 0  0.10  0.00000  0.01815  0.00000  0.90910  0.00000     0.000    0.000    0.000  1;
 117  119   100.00   200.00 60 0  0.40  0.00020  0.01250  0.00000  1.11900  0.00000     0.000    0.000   11.200  1;
 118  119   100.00    20.00 60 0  0.04  0.00000  0.00448  0.00000  0.94520  0.00000     0.000    0.000    0.000  1;
 138  139   100.00    20.00 60 0  0.04  0.00000  0.01512  0.00000  0.99600  0.00000     0.000    0.000    0.000  1;
 140  141   100.00    20.00 60 0  0.09  0.00000  0.00365  0.00000  0.97870  0.00000     0.000    0.000    0.000  1;
 144  145   100.00    20.00 60 0  0.04  0.00000  0.00516  0.00000  0.98430  0.00000     0.000    0.000    0.000  1;
 145  146   100.00   500.00 60 0  2.17  0.00000  0.00500  0.00000  1.00000  0.00000     0.000    0.000    0.000  1;
 147  148   100.00   500.00 60 0 22.73  0.00000  0.00980  0.00000  1.05000  0.00000     0.000    0.000    0.000  1;
 149  150   100.00    20.00 60 0  0.09  0.00000  0.01026  0.00000  0.98710  0.00000     0.000    0.000    0.000  1;
 153  154   100.00   500.00 60 0  2.17  0.00000  0.01149  0.00000  1.06310  0.00000     0.000    0.000   11.200  1;
 153  154   100.00   500.00 60 0  2.17  0.00000  0.01149  0.00000  1.06310  0.00000     0.000    0.000   11.200  1;
 153  154   100.00   500.00 60 0  2.17  0.00000  0.01149  0.00000  1.06310  0.00000     0.000    0.000   11.200  1;
 156  157   100.00   345.00 60 0  1.50  0.00030  0.01810  0.00000  1.00000  0.00000     0.000    0.000    0.000  1;
 158  159   100.00   345.00 60 0 17.25  0.00020  0.00580  0.00000  0.98550  0.00000     0.000    0.000    0.000  1;
 161  162   100.00   230.00 60 0 11.50  0.00050  0.01410  0.00000  1.05880  0.00000     0.000    0.000    0.000  1;
 164  163   100.00   345.00 60 0  0.00  0.00000  0.01950  0.00000  1.00000  0.00000     0.000    0.000    0.000  1;
   ];

% Remove Limits
Line.con(:,15) = 0;

% Generator Data
Syn.con = [ ...
   4 1600.00  20.00 60 2 0 0 0 0.25 0 0 0 0 0 0 0 0 0 0;
   6 2100.00  22.00 60 2 0 0 0 0.25 0 0 0 0 0 0 0 0 0 0;
   9 4300.00  22.00 60 2 0 0 0 0.25 0 0 0 0 0 0 0 0 0 0;
  11 4100.00  20.00 60 2 0 0 0 0.25 0 0 0 0 0 0 0 0 0 0;
  13 3400.00  26.00 60 2 0 0 0 0.25 0 0 0 0 0 0 0 0 0 0;
  15 5300.00  24.00 60 2 0 0 0 0.25 0 0 0 0 0 0 0 0 0 0;
  18 2000.00  22.00 60 2 0 0 0 0.25 0 0 0 0 0 0 0 0 0 0;
  30 8900.00  20.00 60 2 0 0 0 0.25 0 0 0 0 0 0 0 0 0 0;
  35 9000.00  20.00 60 2 0 0 0 0.25 0 0 0 0 0 0 0 0 0 0;
  36 3300.00  22.00 60 2 0 0 0 0.25 0 0 0 0 0 0 0 0 0 0;
  40  400.00  18.00 60 2 0 0 0 0.25 0 0 0 0 0 0 0 0 0 0;
  43  650.00  18.00 60 2 0 0 0 0.25 0 0 0 0 0 0 0 0 0 0;
  45 3600.00  26.00 60 2 0 0 0 0.25 0 0 0 0 0 0 0 0 0 0;
  47  220.00  11.50 60 2 0 0 0 0.25 0 0 0 0 0 0 0 0 0 0;
  65 5800.00  20.00 60 2 0 0 0 0.25 0 0 0 0 0 0 0 0 0 0;
  70 2600.00  13.80 60 2 0 0 0 0.25 0 0 0 0 0 0 0 0 0 0;
  77 10400.0  13.80 60 2 0 0 0 0.25 0 0 0 0 0 0 0 0 0 0;
  79 20000.0  20.00 60 2 0 0 0 0.25 0 0 0 0 0 0 0 0 0 0;
 103 1500.00  25.00 60 2 0 0 0 0.25 0 0 0 0 0 0 0 0 0 0;
 112 2100.00  20.00 60 2 0 0 0 0.25 0 0 0 0 0 0 0 0 0 0;
 116 1200.00  20.00 60 2 0 0 0 0.25 0 0 0 0 0 0 0 0 0 0;
 118 6900.00  20.00 60 2 0 0 0 0.25 0 0 0 0 0 0 0 0 0 0;
 138 2000.00  20.00 60 2 0 0 0 0.25 0 0 0 0 0 0 0 0 0 0;
 140 6400.00  20.00 60 2 0 0 0 0.25 0 0 0 0 0 0 0 0 0 0;
 144 3400.00  20.00 60 2 0 0 0 0.25 0 0 0 0 0 0 0 0 0 0;
 148 3400.00  22.00 60 2 0 0 0 0.25 0 0 0 0 0 0 0 0 0 0;
 149 4400.00  20.00 60 2 0 0 0 0.25 0 0 0 0 0 0 0 0 0 0;
 159 3300.00  20.00 60 2 0 0 0 0.25 0 0 0 0 0 0 0 0 0 0;
 162  900.00  20.00 60 2 0 0 0 0.25 0 0 0 0 0 0 0 0 0 0];

Syn.con(xnode,[5,6,7,8,9,10,11,12,13,14,15,16,17,18,19]) = [3 0 0 1.4463 0.3855 0.3023 7.741 0.046 1.4081 0.5759 0.3023 0.86 0.068 0 0];
%4 1600.00  20.00 60 3 0 0 1.4463 0.3855 0.3023 7.741 0.046 1.4081 0.5759 0.3023 0.86 0.068 0 0;
% Set the Damping Parameters D
Syn.con(:,19) = 4;
Syn.con(xnode,19) = 0;
% Set Inertia
M = 2*[ ...
        2.64;
        2.6100;
        3.4200;
        2.4500;
        3.5900;
        3.8300;
        2.6300;
        4.3400;
        2.9500;
        2.3200;
        6.4100;
        4.1300;
        2.8800;
        3.8000;
        3.3800;
        3.0000;
        3.6700;
        3.4600;
        3.4600;
        4.3900;
        4.1600;
        3.8200;
        6.0700;
        2.8200;
        2.7500;
        3.4900;
        3.0300;
        2.8200;
        3.0100];

% Add to the Data Structure
Syn.con(:,18) = M;

% AVR Parameters on Bus 4 (Source Generator)
Ka = 300;
Ta = 0.05;
Kf = 0;
Tf = 0.00000000000001;
Ke = 1;
Te = 0.00000000000001;
Tr = 0.00000000000001;
Ae = 0;
Be = 0;

% AVR
Exc.con = [ ...
    xnode 2 10 -10 Ka Ta Kf Tf Ke Te Tr Ae Be 1];

% % Areas
% Areas.con = [ ...
%    1     0 100.00  0.00000  0.05000 0;
%    2     0 100.00  0.00000  0.05000 0;
%    3     0 100.00  0.00000  0.05000 0;
%    ];
%
% Bus.names = { ...
%   'CORONADO'; 'CHOLLA'; 'CORONADO'; 'CRAIG'; 'CRAIG';
%   'FOURCORN'; 'FOURCORN'; 'FCNGN4CC'; 'FOURCORN'; 'HAYDEN';
%   'NAVAJO'; 'NAVAJO 2'; 'MOENKOPI'; 'PALOVRD2'; 'PALOVRDE';
%   'SAN JUAN'; 'SJUAN G4'; 'WESTWING'; 'NAVAJO1'; 'NAVAJO2';
%   'NAVAJO3'; 'NAVAJO4'; 'MOENKOP1'; 'MOENKOP2'; 'MOENKOP3';
%   'MOENKOP4'; 'FOURCOR1'; 'FOURCOR2'; 'CANAD G1'; 'CANADA';
%   'CANALB'; 'CA230TO'; 'CA230'; 'CMAIN GM'; 'BRIDGER2';
%   'ADELANTO'; 'ADELAN&1'; 'CASTAIC'; 'CASTAI4G'; 'GLENDAL';
%   'HAYNES'; 'HAYNES3G'; 'INTERMT'; 'INTERM1G'; 'OLIVE';
%   'OWENS G'; 'RINALDI'; 'RINALDI'; 'RIVER'; 'STA B';
%   'STA B1'; 'STA B2'; 'STA BLD'; 'STA E'; 'STA E';
%   'STA F'; 'STA G'; 'STA J'; 'SYLMARLA'; 'SYLMAR S';
%   'VALLEY'; 'VICTORVL'; 'VICTORVL'; 'MONTA G1'; 'MONTANA';
%   'BIG EDDY'; 'BIG EDDY'; 'BIG EDDY'; 'DALLES21'; 'CELILO';
%   'CELILOCA'; 'COLSTRP'; 'COULEE'; 'GARRISON'; 'JOHN DAY';
%   'JOHN DAY'; 'HANFORD'; 'NORTH G3'; 'NORTH'; 'BURNS';
%   'GRIZZLY'; 'MALIN'; 'MIDPOINT'; 'MIDPOINT'; 'SUMMER L';
%   'GRIZZLY1'; 'GRIZZLY2'; 'MALIN1'; 'MALIN2'; 'GRIZZLY3';
%   'GRIZZLY4'; 'GRIZZLY5'; 'GRIZZLY6'; 'GRIZZLY7'; 'GRIZZLY8';
%   'GRIZZLY9'; 'GRIZZLYA'; 'BURNS1'; 'CORTINA'; 'COTWDPGE';
%   'DIABLO'; 'DIABLO1'; 'GATES'; 'GLENN'; 'LOGAN CR';
%   'LOSBANOS'; 'MIDWAY'; 'MIDWAY'; 'MOSSLAND'; 'OLINDA';
%   'ROUND MT'; 'ROUND MT'; 'ROUND MT'; 'TABLE MT'; 'TEVATR';
%   'TEVATR'; 'TEVATR2'; 'TEVATR'; 'OLINDA1'; 'OLINDA2';
%   'OLINDA3'; 'OLINDA4'; 'ROUND1'; 'ROUND2'; 'ROUND3';
%   'ROUND4'; 'TABLE1'; 'TABLE2'; 'TABLE3'; 'TABLE4';
%   'TEVATR1'; 'TEVATR2'; 'TEVATR3'; 'GATES1'; 'DEVERS';
%   'EAGLROCK'; 'ELDORADO'; 'ELDORADO'; 'LITEHIPE'; 'LITEHIPE';
%   'LUGO'; 'MESA CAL'; 'MIRALOMA'; 'MIRALOMA'; 'MIRALOMA';
%   'MOHAVE'; 'MOHAV1CC'; 'PARDEE'; 'PARDEE'; 'SERRANO';
%   'VALLEY'; 'VINCENT'; 'VINCENT'; 'CAMP WIL'; 'BENLOMND';
%   'BENLOMND'; 'EMERY'; 'EMERY'; 'MONA'; 'NAUGHTON';
%   'NAUGHT'; 'PINTO PS'; 'PINTO'; 'SPAN FRK'; 'SIGURD';
%   'TERMINAL'; 'MALIN3'; 'MALIN4'; 'MALIN5'; 'MALIN6';
%   'MALIN7'; 'MALIN8'; 'MIDWAY1'; 'MIDWAY2'; 'MIDWAY3';
%   'MIDWAY4'; 'MIDWAY5'; 'MIDWAY6'; 'BURNS2'};

PQ.con(1:104,[4,5])=pqi*PQ.con(1:104,[4,5]);
%PQ.con(:,[4,5])=pqi*PQ.con(:,[4,5]);